13Bus/IEEE13Nodeckt_GD.dss
Clear 
Set DefaultBaseFrequency=60

!INSERINDO CIRCUITO ALIMENTADOR

new circuit.IEEE13Nodeckt 
~ basekv=115 pu=1.0001 phases=3 bus1=SourceBus  
~ Angle=30                                                        
~ MVAsc3=20000 MVASC1=21000    

!ADICIONANDO SUBESTAÇÃO DE TRANSFORMAÇÃO REBAIXADORA DE 115 kV PARA 4.16 kV

New Transformer.Sub Phases=3 Windings=2   XHL=(8 1000 /)
~ wdg=1 bus=SourceBus   conn=delta  kv=115  kva=5000   %r=(.5 1000 /) 
~ wdg=2 bus=650             conn=wye    kv=4.16  kva=5000   %r=(.5 1000 /)  

!REGURADOR DE TENSÃO NA SAIDA DA SUBESTAÇÃO

New Transformer.Reg1 phases=1 bank=reg1 XHL=0.01 kVAs=[1666 1666]
~ Buses=[650.1 RG60.1] kVs=[2.4  2.4] %LoadLoss=0.01
new regcontrol.Reg1  transformer=Reg1 winding=2  vreg=122  band=2  ptratio=20 ctprim=700  R=3   X=9 

New Transformer.Reg2 phases=1 bank=reg1 XHL=0.01 kVAs=[1666 1666]
~ Buses=[650.2 RG60.2] kVs=[2.4  2.4] %LoadLoss=0.01
new regcontrol.Reg2  transformer=Reg2 winding=2  vreg=122  band=2  ptratio=20 ctprim=700  R=3   X=9 

New Transformer.Reg3 phases=1 bank=reg1 XHL=0.01 kVAs=[1666 1666]
~ Buses=[650.3 RG60.3] kVs=[2.4  2.4] %LoadLoss=0.01
new regcontrol.Reg3  transformer=Reg3 winding=2  vreg=122  band=2  ptratio=20 ctprim=700  R=3   X=9 


!TRANSFORMADOR REBAIXADOR DE 4.16kV NA BARRA 633 PARA 480 V NA BARRA 634.

New Transformer.XFM1  Phases=3   Windings=2  XHL=2
~ wdg=1 bus=633       conn=Wye kv=4.16    kva=500    %r=.55     XHT=1
~ wdg=2 bus=634       conn=Wye kv=0.480    kva=500    %r=.55   XLT=1

!COMANDO PARA IMPORTAR OS CODIGOS DE IMPEDANCIA DA LINHA (LINESCODES) 

redirect IEEELineCodes.dss

!OUTROS CODIGOS DE LINHA

New linecode.mtx601 nphases=3 BaseFreq=60 
~ rmatrix = (0.3465 | 0.1560 0.3375 | 0.1580 0.1535 0.3414 ) 
~ xmatrix = (1.0179 | 0.5017 1.0478 | 0.4236 0.3849 1.0348 ) 
~ units=mi 
New linecode.mtx602 nphases=3 BaseFreq=60 
~ rmatrix = (0.7526 | 0.1580 0.7475 | 0.1560 0.1535 0.7436 ) 
~ xmatrix = (1.1814 | 0.4236 1.1983 | 0.5017 0.3849 1.2112 ) 
~ units=mi 
New linecode.mtx603 nphases=2 BaseFreq=60 
~ rmatrix = (1.3238 | 0.2066 1.3294 ) 
~ xmatrix = (1.3569 | 0.4591 1.3471 ) 
~ units=mi 
New linecode.mtx604 nphases=2 BaseFreq=60 
~ rmatrix = (1.3238 | 0.2066 1.3294 ) 
~ xmatrix = (1.3569 | 0.4591 1.3471 ) 
~ units=mi 
New linecode.mtx605 nphases=1 BaseFreq=60 
~ rmatrix = (1.3292 ) 
~ xmatrix = (1.3475 ) 
~ units=mi 

New Linecode.mtx606 nphases=3  Units=mi
~ Rmatrix=[0.791721  |0.318476  0.781649  |0.28345  0.318476  0.791721  ]
~ Xmatrix=[0.438352  |0.0276838  0.396697  |-0.0184204  0.0276838  0.438352  ]
~ Cmatrix=[383.948  |0  383.948  |0  0  383.948  ]
New linecode.mtx607 nphases=1 BaseFreq=60 
~ rmatrix = (1.3425 ) 
~ xmatrix = (0.5124 )
~ cmatrix = [236] 
~ units=mi 

/*INSERINDO CURVA DE CARGA RESIDENCIAL DE 1 EM 1 HORA PARA SIMULAÇAO DO MODO DAILY COM 24 PONTOS DE 
!COLETA DURANTE O DIA (24 HORAS DO DIA*/

New loadshape.oneday npts=24 interval=1.0 mult=[0.3 0.3 0.3 0.35 0.36 0.39 0.41 0.48 0.52 0.59 0.62 0.94 0.87 0.91 0.95 0.95 1.0 0.98 0.94 0.92 0.61 0.6 0.51 0.44]

!CARGAS LIGADAS NO SISTEMA

New Load.671 Bus1=671.1.2.3  Phases=3 Conn=Delta Model=1 kV=4.16   kW=1155 kvar=660 daily=oneday 
New Load.634a Bus1=634.1     Phases=1 Conn=Wye  Model=1 kV=0.277  kW=160   kvar=110 daily=oneday
New Load.634b Bus1=634.2     Phases=1 Conn=Wye  Model=1 kV=0.277  kW=120   kvar=90  daily=oneday
New Load.634c Bus1=634.3     Phases=1 Conn=Wye  Model=1 kV=0.277  kW=120   kvar=90  daily=oneday
New Load.645 Bus1=645.2       Phases=1 Conn=Wye  Model=1 kV=2.4      kW=170   kvar=125  daily=oneday
New Load.646 Bus1=646.2.3    Phases=1 Conn=Delta Model=2 kV=4.16    kW=230   kvar=132  daily=oneday
New Load.692 Bus1=692.3.1    Phases=1 Conn=Delta Model=5 kV=4.16    kW=170   kvar=151  daily=oneday
New Load.675a Bus1=675.1    Phases=1 Conn=Wye  Model=1 kV=2.4  kW=485   kvar=190  daily=oneday
New Load.675b Bus1=675.2    Phases=1 Conn=Wye  Model=1 kV=2.4  kW=68   kvar=60  daily=oneday
New Load.675c Bus1=675.3    Phases=1 Conn=Wye  Model=1 kV=2.4  kW=290   kvar=212  daily=oneday
New Load.611 Bus1=611.3      Phases=1 Conn=Wye  Model=5 kV=2.4  kW=170   kvar=80  daily=oneday
New Load.652 Bus1=652.1      Phases=1 Conn=Wye  Model=2 kV=2.4  kW=128   kvar=86  daily=oneday
New Load.670a Bus1=670.1    Phases=1 Conn=Wye  Model=1 kV=2.4  kW=17    kvar=10  daily=oneday
New Load.670b Bus1=670.2    Phases=1 Conn=Wye  Model=1 kV=2.4  kW=66    kvar=38  daily=oneday
New Load.670c Bus1=670.3    Phases=1 Conn=Wye  Model=1 kV=2.4  kW=117  kvar=68  daily=oneday

!CAPACITORES PARA CORREÇÃO FATOR DE POTENCIA

New Capacitor.Cap1 Bus1=675 phases=3 kVAR=600 kV=4.16 
New Capacitor.Cap2 Bus1=611.3 phases=1 kVAR=100 kV=2.4

!LINHAS QUE INTERLIGAM AS BARRAS
 
New Line.650632    Phases=3 Bus1=RG60.1.2.3   Bus2=632.1.2.3  LineCode=mtx601 Length=2000 units=ft 
New Line.632670    Phases=3 Bus1=632.1.2.3    Bus2=670.1.2.3  LineCode=mtx601 Length=667  units=ft    
New Line.670671    Phases=3 Bus1=670.1.2.3    Bus2=671.1.2.3  LineCode=mtx601 Length=1333 units=ft 
New Line.671680    Phases=3 Bus1=671.1.2.3    Bus2=680.1.2.3  LineCode=mtx601 Length=1000 units=ft 
New Line.632633    Phases=3 Bus1=632.1.2.3    Bus2=633.1.2.3  LineCode=mtx602 Length=500  units=ft 
New Line.632645    Phases=2 Bus1=632.3.2      Bus2=645.3.2    LineCode=mtx603 Length=500  units=ft 
New Line.645646    Phases=2 Bus1=645.3.2      Bus2=646.3.2    LineCode=mtx603 Length=300  units=ft 
New Line.692675    Phases=3 Bus1=692.1.2.3    Bus2=675.1.2.3  LineCode=mtx606 Length=500  units=ft 
New Line.671684    Phases=2 Bus1=671.1.3      Bus2=684.1.3    LineCode=mtx604 Length=300  units=ft 
New Line.684611    Phases=1 Bus1=684.3        Bus2=611.3      LineCode=mtx605 Length=300  units=ft 
New Line.684652    Phases=1 Bus1=684.1        Bus2=652.1      LineCode=mtx607 Length=800  units=ft 

!ADICIONANDO UM MEDIDOR NA ENTRADA DO ALIMENTADOR PARA MEDIÇÃO DOS RESULTADOS

New energymeter.medidor element=line.650632 terminal=1

!SISTEMA SOLAR
redirect PVSysten.dss

!DEFINIÇÃO DAS CHAVES 

New Line.671692    Phases=3 Bus1=671   Bus2=692  Switch=y  r1=1e-4 r0=1e-4 x1=0.000 x0=0.000 c1=0.000 c0=0.000

! TENSOES BASES DO CIRCUITO
Set Voltagebases=[115, 4.16, .48]
calcv

!COORDENADAS GEOGRAFICAS DAS BARRAS

BusCoords IEEE13Node_BusXY.csv

! CRIANDO MONITOR PARA VISUALIZAR OS PAREMETROS DE ANALISE DA REDE ( TENSAO, POTENCIA, CORRENTE,  REATIVO)

New monitor.linha1_power element=line.650632 terminal=1 mode=1 ppolar=no 
New monitor.linha1_voltage element=line.650632 terminal=1 mode=0

! MODO DE SOLUÇÃO DO SISTEMA
! RESOLVER DURANTE AS 24HORAS
! COM INTERVALO DE AMOSTRAGEM DE 1 HORA, COM TOTAL DE 24 AMOSTRAS
! ENFIM SOLVE PARA RESOLVER.
set mode = daily
set stepsize = 1.0h
set number = 24
solve

Export monitors linha1_voltage
Export monitors linha1_power
